
     RDKit          3D

 33 33  0  0  0  0  0  0  0  0999 V2000
   -4.5813    0.0500   -1.1583 O   0  0  0  0  0  0  0  0  0  0  0  0
   -4.3034   -0.6771    0.0120 C   0  0  0  0  0  0  0  0  0  0  0  0
   -3.1776    0.0400    0.7093 C   0  0  0  0  0  0  0  0  0  0  0  0
   -2.0205    0.0958   -0.1294 N   0  0  0  0  0  0  0  0  0  0  0  0
   -0.9692    0.8078    0.5896 C   0  0  0  0  0  0  0  0  0  0  0  0
    0.1861    0.9700   -0.4127 C   0  0  0  0  0  0  0  0  0  0  0  0
    0.8010   -0.3111   -0.5431 N   0  0  0  0  0  0  0  0  0  0  0  0
   -0.0849   -1.4050   -0.2378 C   0  0  0  0  0  0  0  0  0  0  0  0
   -1.5200   -1.1624   -0.5828 C   0  0  0  0  0  0  0  0  0  0  0  0
    2.0415   -0.3648    0.1564 C   0  0  0  0  0  0  0  0  0  0  0  0
    3.0738    0.4958   -0.5026 C   0  0  0  0  0  0  0  0  0  0  0  0
    4.6318    0.4446    0.3471 S   0  0  0  0  0  0  0  0  0  0  0  0
    5.7143    1.4371   -0.4657 O   0  0  0  0  0  0  0  0  0  0  0  0
    4.5479    0.8979    1.7588 O   0  0  0  0  0  0  0  0  0  0  0  0
    5.2062   -0.9618    0.2726 O   0  0  0  0  0  0  0  0  0  0  0  0
   -4.8239    0.9671   -0.8374 H   0  0  0  0  0  0  0  0  0  0  0  0
   -4.0918   -1.7142   -0.2491 H   0  0  0  0  0  0  0  0  0  0  0  0
   -5.2128   -0.5949    0.6827 H   0  0  0  0  0  0  0  0  0  0  0  0
   -3.5153    1.0945    0.8644 H   0  0  0  0  0  0  0  0  0  0  0  0
   -2.9664   -0.3663    1.7275 H   0  0  0  0  0  0  0  0  0  0  0  0
   -0.6709    0.1837    1.4342 H   0  0  0  0  0  0  0  0  0  0  0  0
   -1.3587    1.7997    0.8487 H   0  0  0  0  0  0  0  0  0  0  0  0
   -0.2972    1.2030   -1.4031 H   0  0  0  0  0  0  0  0  0  0  0  0
    0.8353    1.7816   -0.0768 H   0  0  0  0  0  0  0  0  0  0  0  0
    0.2580   -2.2819   -0.8496 H   0  0  0  0  0  0  0  0  0  0  0  0
    0.0431   -1.7457    0.8320 H   0  0  0  0  0  0  0  0  0  0  0  0
   -1.6516   -1.2856   -1.6740 H   0  0  0  0  0  0  0  0  0  0  0  0
   -2.0926   -2.0186   -0.1222 H   0  0  0  0  0  0  0  0  0  0  0  0
    1.8706    0.0350    1.2004 H   0  0  0  0  0  0  0  0  0  0  0  0
    2.4050   -1.4047    0.3294 H   0  0  0  0  0  0  0  0  0  0  0  0
    2.7390    1.5404   -0.6251 H   0  0  0  0  0  0  0  0  0  0  0  0
    3.2824    0.1293   -1.5448 H   0  0  0  0  0  0  0  0  0  0  0  0
    5.7020    2.3208   -0.0229 H   0  0  0  0  0  0  0  0  0  0  0  0
  1  2  1  0
  2  3  1  0
  3  4  1  0
  4  5  1  0
  5  6  1  0
  6  7  1  0
  7  8  1  0
  8  9  1  0
  7 10  1  0
 10 11  1  0
 11 12  1  0
 12 13  1  0
 12 14  2  0
 12 15  2  0
  9  4  1  0
  1 16  1  0
  2 17  1  0
  2 18  1  0
  3 19  1  0
  3 20  1  0
  5 21  1  0
  5 22  1  0
  6 23  1  0
  6 24  1  0
  8 25  1  0
  8 26  1  0
  9 27  1  0
  9 28  1  0
 10 29  1  0
 10 30  1  0
 11 31  1  0
 11 32  1  0
 13 33  1  0
M  END
